<?xml version="1.0" encoding="UTF-8"?>

<!-- generated on 2025-04-02 19:10:09 by Eclipse SUMO duarouter Version 1.22.0
<duarouterConfiguration xmlns:xsi="http://www.w3.org/2001/XMLSchema-instance" xsi:noNamespaceSchemaLocation="http://sumo.dlr.de/xsd/duarouterConfiguration.xsd">

    <input>
        <net-file value="formosa.net.xml"/>
        <route-files value="flow.rou.xml"/>
    </input>

    <output>
        <output-file value="car.rou.xml"/>
    </output>

    <processing>
        <skip-new-routes value="true"/>
    </processing>

</duarouterConfiguration>
-->

<routes xmlns:xsi="http://www.w3.org/2001/XMLSchema-instance" xsi:noNamespaceSchemaLocation="http://sumo.dlr.de/xsd/routes_file.xsd">
    <vehicle id="car_f0A.0" type="passenger" depart="0.00">
        <route edges="240515828 240515827#0 240515827#1 405990662#0 405990662#2 405990662#3 246576608#0 246576608#1 246576608#2 246576608#3 246576608#4 212436387#0 212436387#2 212436387#4 239754104#0 239754104#2 239754104#4 239754104#7 239754104#9 249901822#0 249901822#2 249901822#4 249901822#7 249901822#10 249901822#14 405990666 266765446#0 266765446#1 266765446#4 266765446#5"/>
    </vehicle>
    <vehicle id="car_f0B.0" type="passenger" depart="0.00">
        <route edges="240515827#1 405990662#0 405990662#2 405990662#3 246576608#0 246576608#1 246576608#2 246576608#3 246576608#4 212436387#0 212436387#2 212436387#4 239754104#0 239754104#2 239754104#4 239754104#7 239754104#9 249901822#0 249901822#2 249901822#4 249901822#7 249901822#10 249901822#14 405990666 266765446#0 266765446#1 266765446#4 266765446#5"/>
    </vehicle>
    <vehicle id="car_f0C.0" type="passenger" depart="0.00">
        <route edges="240515827#1 405990662#0 405990662#2 405990662#3 246576608#0 246576608#1 246576608#2 246576608#3 246576608#4 212436387#0 212436387#2 212436387#4 239754104#0 239754104#2 239754104#4 239754104#7 239754104#9 249901822#0 249901822#2 249901822#4 249901822#7 249901822#10 249901822#14 405990666 266765446#0 266765446#1 266765446#4 266765446#5"/>
    </vehicle>
    <vehicle id="car_f1A.0" type="passenger" depart="0.00">
        <route edges="-266765446#5 -266765446#4 -266765446#3 -266765446#0 -405990666 -249901822#14 -249901822#13 -249901822#9 -249901822#6 -249901822#3 -249901822#1 -239754104#10 -239754104#8 -239754104#6 -239754104#3 -239754104#1 -212436387#6 -212436387#3 -212436387#1 -246576608#6 -246576608#3 -246576608#2 -246576608#1 -246576608#0 -405990662#3 -405990662#2 -405990662#1 -240515827#2 -240515827#0 -240515828"/>
    </vehicle>
    <vehicle id="car_f1B.0" type="passenger" depart="0.00">
        <route edges="-266765446#3 -266765446#0 -405990666 -249901822#14 -249901822#13 -249901822#9 -249901822#6 -249901822#3 -249901822#1 -239754104#10 -239754104#8 -239754104#6 -239754104#3 -239754104#1 -212436387#6 -212436387#3 -212436387#1 -246576608#6 -246576608#3 -246576608#2 -246576608#1 -246576608#0 -405990662#3 -405990662#2 -405990662#1 -240515827#2 -240515827#0 -240515828"/>
    </vehicle>
    <vehicle id="car_f1C.0" type="passenger" depart="0.00">
        <route edges="-266765446#3 -266765446#0 -405990666 -249901822#14 -249901822#13 -249901822#9 -249901822#6 -249901822#3 -249901822#1 -239754104#10 -239754104#8 -239754104#6 -239754104#3 -239754104#1 -212436387#6 -212436387#3 -212436387#1 -246576608#6 -246576608#3 -246576608#2 -246576608#1 -246576608#0 -405990662#3 -405990662#2 -405990662#1 -240515827#2 -240515827#0 -240515828"/>
    </vehicle>
    <vehicle id="car_f2A.0" type="passenger" depart="0.00">
        <route edges="267234730#0 267234731#0 267234731#4 267234731#8 267234731#11 267234731#12 267234731#13 267234731#14 267234731#18 267234731#25 267234731#28 347431834#0 347431834#3 347431834#5 347431834#7 347431834#9 347431834#11 347431834#13 347431834#15 347431834#16 51500288#1 51500288#2 267234700#0 267234700#2 267234700#5 267234700#6 267234700#7 267234700#8 267234700#11 267234700#14 313253064#0 313253064#1 313253064#2 313253064#6 107444331#4 248239122#3 248239122#7 248239118 248239119 248239116 267234701#0 267234701#3 267234701#6 267234701#7 267234701#8 267234701#9 267234701#12 51500287#0 51500287#2 297144854#9 297144854#10 297144854#11 297144854#13 297144854#15 297144854#17 297144854#19 297144854#21 297144854#23 297144854#26 347431832#0 347431832#3 347431832#10 347431832#14 347431832#15 347431832#16 347431832#17 347431832#20 347431832#24 347431832#28"/>
    </vehicle>
    <vehicle id="car_f2B.0" type="passenger" depart="0.00">
        <route edges="267234731#0 267234731#4 267234731#8 267234731#11 267234731#12 267234731#13 267234731#14 267234731#18 267234731#25 267234731#28 347431834#0 347431834#3 347431834#5 347431834#7 347431834#9 347431834#11 347431834#13 347431834#15 347431834#16 51500288#1 51500288#2 267234700#0 267234700#2 267234700#5 267234700#6 267234700#7 267234700#8 267234700#11 267234700#14 313253064#0 313253064#1 313253064#2 313253064#6 107444331#4 248239122#3 248239122#7 248239118 248239119 248239116 267234701#0 267234701#3 267234701#6 267234701#7 267234701#8 267234701#9 267234701#12 51500287#0 51500287#2 297144854#9 297144854#10 297144854#11 297144854#13 297144854#15 297144854#17 297144854#19 297144854#21 297144854#23 297144854#26 347431832#0 347431832#3 347431832#10 347431832#14 347431832#15 347431832#16 347431832#17 347431832#20 347431832#24 347431832#28"/>
    </vehicle>
    <vehicle id="car_f2C.0" type="passenger" depart="0.00">
        <route edges="267234731#0 267234731#4 267234731#8 267234731#11 267234731#12 267234731#13 267234731#14 267234731#18 267234731#25 267234731#28 347431834#0 347431834#3 347431834#5 347431834#7 347431834#9 347431834#11 347431834#13 347431834#15 347431834#16 51500288#1 51500288#2 267234700#0 267234700#2 267234700#5 267234700#6 267234700#7 267234700#8 267234700#11 267234700#14 313253064#0 313253064#1 313253064#2 313253064#6 107444331#4 248239122#3 248239122#7 248239118 248239119 248239116 267234701#0 267234701#3 267234701#6 267234701#7 267234701#8 267234701#9 267234701#12 51500287#0 51500287#2 297144854#9 297144854#10 297144854#11 297144854#13 297144854#15 297144854#17 297144854#19 297144854#21 297144854#23 297144854#26 347431832#0 347431832#3 347431832#10 347431832#14 347431832#15 347431832#16 347431832#17 347431832#20 347431832#24 347431832#28"/>
    </vehicle>
    <vehicle id="car_f3A.0" type="passenger" depart="0.00">
        <route edges="248239122#0 248239122#3 248239122#7 248239118 248239119 248239116 267234701#0 267234701#3 267234701#6 267234701#7 267234701#8 267234701#9 267234701#12 51500287#0 51500287#2 297144854#9 297144854#10 297144854#11 297144854#13 297144854#15 297144854#17 297144854#19 297144854#21 297144854#23 297144854#26 347431832#0 347431832#3 347431832#10 347431832#14 347431832#15 347431832#16 347431832#17 347431832#20 347431832#24 347431832#28 293501359 267234730#0 267234731#0 267234731#4 267234731#8 267234731#11 267234731#12 267234731#13 267234731#14 267234731#18 267234731#25 267234731#28 347431834#0 347431834#3 347431834#5 347431834#7 347431834#9 347431834#11 347431834#13 347431834#15 347431834#16 51500288#1 51500288#2 267234700#0 267234700#2 267234700#5 267234700#6 267234700#7 267234700#8 267234700#11 267234700#14 313253064#0 313253064#1 313253064#2 313253064#6 313253064#10"/>
    </vehicle>
    <vehicle id="car_f3B.0" type="passenger" depart="0.00">
        <route edges="248239122#3 248239122#7 248239118 248239119 248239116 267234701#0 267234701#3 267234701#6 267234701#7 267234701#8 267234701#9 267234701#12 51500287#0 51500287#2 297144854#9 297144854#10 297144854#11 297144854#13 297144854#15 297144854#17 297144854#19 297144854#21 297144854#23 297144854#26 347431832#0 347431832#3 347431832#10 347431832#14 347431832#15 347431832#16 347431832#17 347431832#20 347431832#24 347431832#28 293501359 267234730#0 267234731#0 267234731#4 267234731#8 267234731#11 267234731#12 267234731#13 267234731#14 267234731#18 267234731#25 267234731#28 347431834#0 347431834#3 347431834#5 347431834#7 347431834#9 347431834#11 347431834#13 347431834#15 347431834#16 51500288#1 51500288#2 267234700#0 267234700#2 267234700#5 267234700#6 267234700#7 267234700#8 267234700#11 267234700#14 313253064#0 313253064#1 313253064#2 313253064#6 313253064#10"/>
    </vehicle>
    <vehicle id="car_f3C.0" type="passenger" depart="0.00">
        <route edges="248239122#3 248239122#7 248239118 248239119 248239116 267234701#0 267234701#3 267234701#6 267234701#7 267234701#8 267234701#9 267234701#12 51500287#0 51500287#2 297144854#9 297144854#10 297144854#11 297144854#13 297144854#15 297144854#17 297144854#19 297144854#21 297144854#23 297144854#26 347431832#0 347431832#3 347431832#10 347431832#14 347431832#15 347431832#16 347431832#17 347431832#20 347431832#24 347431832#28 293501359 267234730#0 267234731#0 267234731#4 267234731#8 267234731#11 267234731#12 267234731#13 267234731#14 267234731#18 267234731#25 267234731#28 347431834#0 347431834#3 347431834#5 347431834#7 347431834#9 347431834#11 347431834#13 347431834#15 347431834#16 51500288#1 51500288#2 267234700#0 267234700#2 267234700#5 267234700#6 267234700#7 267234700#8 267234700#11 267234700#14 313253064#0 313253064#1 313253064#2 313253064#6 313253064#10"/>
    </vehicle>
    <vehicle id="car_f4A.0" type="passenger" depart="0.00">
        <route edges="249154070#0 249154070#4 249154070#5 405985983#0 405985983#3 405985983#7 1294881043 918227024#0 918227023#0 280474978#0 280474978#1 280474978#2 184601297#0 184601297#4 184601297#8 184601297#11 184601297#13 184601297#15 184601297#16 184601297#17 184601297#19 267234707#0 267234707#1 267234707#2 267234707#3 267234707#4 267234707#7 267234707#9"/>
    </vehicle>
    <vehicle id="car_f4B.0" type="passenger" depart="0.00">
        <route edges="249154070#4 249154070#5 405985983#0 405985983#3 405985983#7 1294881043 918227024#0 918227023#0 280474978#0 280474978#1 280474978#2 184601297#0 184601297#4 184601297#8 184601297#11 184601297#13 184601297#15 184601297#16 184601297#17 184601297#19 267234707#0 267234707#1 267234707#2 267234707#3 267234707#4 267234707#7 267234707#9"/>
    </vehicle>
    <vehicle id="car_f4C.0" type="passenger" depart="0.00">
        <route edges="249154070#4 249154070#5 405985983#0 405985983#3 405985983#7 1294881043 918227024#0 918227023#0 280474978#0 280474978#1 280474978#2 184601297#0 184601297#4 184601297#8 184601297#11 184601297#13 184601297#15 184601297#16 184601297#17 184601297#19 267234707#0 267234707#1 267234707#2 267234707#3 267234707#4 267234707#7 267234707#9"/>
    </vehicle>
    <vehicle id="car_f5A.0" type="passenger" depart="0.00">
        <route edges="-40432495#2 249154072#0 249154072#4 249154072#5 249154072#6 249154072#8 267234706#1 166456857#0 166456857#1 166456857#2 166456857#3 166456857#5 166456857#7 166456857#9 166456857#12 166456857#16 239754092#0 918227027#0 244507823#0 1294881031#0 249154071#1 249154071#5 23881708#0 23881708#2 23881708#3"/>
    </vehicle>
    <vehicle id="car_f5B.0" type="passenger" depart="0.00">
        <route edges="249154072#0 249154072#4 249154072#5 249154072#6 249154072#8 267234706#1 166456857#0 166456857#1 166456857#2 166456857#3 166456857#5 166456857#7 166456857#9 166456857#12 166456857#16 239754092#0 918227027#0 244507823#0 1294881031#0 249154071#1 249154071#5 23881708#0 23881708#2 23881708#3"/>
    </vehicle>
    <vehicle id="car_f5C.0" type="passenger" depart="0.00">
        <route edges="249154072#0 249154072#4 249154072#5 249154072#6 249154072#8 267234706#1 166456857#0 166456857#1 166456857#2 166456857#3 166456857#5 166456857#7 166456857#9 166456857#12 166456857#16 239754092#0 918227027#0 244507823#0 1294881031#0 249154071#1 249154071#5 23881708#0 23881708#2 23881708#3"/>
    </vehicle>
    <vehicle id="car_f6A.0" type="passenger" depart="0.00">
        <route edges="81160490 81160514#0 81160514#1 251009387#0 251009387#1 251009387#3 58527533#0 58527533#1 58527533#5 58527533#9 58527533#10 58527533#11 58527533#12 58527533#14 58527533#16 58527533#19 58527533#20 108126638#0 108126638#2 108126638#3 108126638#6 108126638#10 25669188#4 249002662#2 249002662#6 249002662#10 249002662#13 249002662#14 26978282#0 26978282#2 26978282#3 26978282#5 26978282#7 26978282#10 26978282#11 26978282#12 26978282#13 26978282#17 293501350 58527548#0 58527548#3 58527548#4 246576617#0 246576617#1 81160492#0"/>
    </vehicle>
    <vehicle id="car_f6B.0" type="passenger" depart="0.00">
        <route edges="81160514#0 81160514#1 251009387#0 251009387#1 251009387#3 58527533#0 58527533#1 58527533#5 58527533#9 58527533#10 58527533#11 58527533#12 58527533#14 58527533#16 58527533#19 58527533#20 108126638#0 108126638#2 108126638#3 108126638#6 108126638#10 25669188#4 249002662#2 249002662#6 249002662#10 249002662#13 249002662#14 26978282#0 26978282#2 26978282#3 26978282#5 26978282#7 26978282#10 26978282#11 26978282#12 26978282#13 26978282#17 293501350 58527548#0 58527548#3 58527548#4 246576617#0 246576617#1 81160492#0"/>
    </vehicle>
    <vehicle id="car_f6C.0" type="passenger" depart="0.00">
        <route edges="81160514#0 81160514#1 251009387#0 251009387#1 251009387#3 58527533#0 58527533#1 58527533#5 58527533#9 58527533#10 58527533#11 58527533#12 58527533#14 58527533#16 58527533#19 58527533#20 108126638#0 108126638#2 108126638#3 108126638#6 108126638#10 25669188#4 249002662#2 249002662#6 249002662#10 249002662#13 249002662#14 26978282#0 26978282#2 26978282#3 26978282#5 26978282#7 26978282#10 26978282#11 26978282#12 26978282#13 26978282#17 293501350 58527548#0 58527548#3 58527548#4 246576617#0 246576617#1 81160492#0"/>
    </vehicle>
    <vehicle id="car_f7A.0" type="passenger" depart="0.00">
        <route edges="249002662#0 249002662#2 249002662#6 249002662#10 249002662#13 249002662#14 26978282#0 26978282#2 26978282#3 26978282#5 26978282#7 26978282#10 26978282#11 26978282#12 26978282#13 26978282#17 293501350 58527548#0 58527548#3 58527548#4 246576617#0 81160514#1 251009387#0 251009387#1 251009387#3 58527533#0 58527533#1 58527533#5 58527533#9 58527533#10 58527533#11 58527533#12 58527533#14 58527533#16 58527533#19 58527533#20 108126638#0 108126638#2 108126638#3 108126638#6 108126638#10 108126638#14"/>
    </vehicle>
    <vehicle id="car_f7B.0" type="passenger" depart="0.00">
        <route edges="249002662#2 249002662#6 249002662#10 249002662#13 249002662#14 26978282#0 26978282#2 26978282#3 26978282#5 26978282#7 26978282#10 26978282#11 26978282#12 26978282#13 26978282#17 293501350 58527548#0 58527548#3 58527548#4 246576617#0 81160514#1 251009387#0 251009387#1 251009387#3 58527533#0 58527533#1 58527533#5 58527533#9 58527533#10 58527533#11 58527533#12 58527533#14 58527533#16 58527533#19 58527533#20 108126638#0 108126638#2 108126638#3 108126638#6 108126638#10 108126638#14"/>
    </vehicle>
    <vehicle id="car_f7C.0" type="passenger" depart="0.00">
        <route edges="249002662#2 249002662#6 249002662#10 249002662#13 249002662#14 26978282#0 26978282#2 26978282#3 26978282#5 26978282#7 26978282#10 26978282#11 26978282#12 26978282#13 26978282#17 293501350 58527548#0 58527548#3 58527548#4 246576617#0 81160514#1 251009387#0 251009387#1 251009387#3 58527533#0 58527533#1 58527533#5 58527533#9 58527533#10 58527533#11 58527533#12 58527533#14 58527533#16 58527533#19 58527533#20 108126638#0 108126638#2 108126638#3 108126638#6 108126638#10 108126638#14"/>
    </vehicle>
    <vehicle id="car_f8A.0" type="passenger" depart="0.00">
        <route edges="249901814#0 249901814#4 777323619#0 297142918#0 297142918#2 297142918#4 297142918#6 347431830 347431833#0 347431833#1 347431833#2 347431833#4 184601297#0 184601297#4 296977678#12 296977678#14 296977678#15 296977678#16 108234968#0 108234968#1 108234968#2 108234968#3 108234968#4 108234968#6 108234968#7 108234968#8 108234968#10 108234968#11 108234968#12 108234968#13 108234968#14 108234968#17 108234968#18 267412231#6 267412231#10 267412231#14 267412229#0 267412229#3 267412229#6 267412229#7 248239144#0 248239144#1 248239144#5"/>
    </vehicle>
    <vehicle id="car_f8B.0" type="passenger" depart="0.00">
        <route edges="249901814#4 777323619#0 297142918#0 297142918#2 297142918#4 297142918#6 347431830 347431833#0 347431833#1 347431833#2 347431833#4 184601297#0 184601297#4 296977678#12 296977678#14 296977678#15 296977678#16 108234968#0 108234968#1 108234968#2 108234968#3 108234968#4 108234968#6 108234968#7 108234968#8 108234968#10 108234968#11 108234968#12 108234968#13 108234968#14 108234968#17 108234968#18 267412231#6 267412231#10 267412231#14 267412229#0 267412229#3 267412229#6 267412229#7 248239144#0 248239144#1 248239144#5"/>
    </vehicle>
    <vehicle id="car_f8C.0" type="passenger" depart="0.00">
        <route edges="249901814#4 777323619#0 297142918#0 297142918#2 297142918#4 297142918#6 347431830 347431833#0 347431833#1 347431833#2 347431833#4 184601297#0 184601297#4 296977678#12 296977678#14 296977678#15 296977678#16 108234968#0 108234968#1 108234968#2 108234968#3 108234968#4 108234968#6 108234968#7 108234968#8 108234968#10 108234968#11 108234968#12 108234968#13 108234968#14 108234968#17 108234968#18 267412231#6 267412231#10 267412231#14 267412229#0 267412229#3 267412229#6 267412229#7 248239144#0 248239144#1 248239144#5"/>
    </vehicle>
    <vehicle id="car_f9A.0" type="passenger" depart="0.00">
        <route edges="248239142#0 248239142#4 248239142#8 248239138#0 248239138#1 248239138#2 248239138#5 248239147#0 248239147#4 248239147#8 -108234968#17 -108234968#16 -108234968#13 -108234968#12 -108234968#11 -108234968#10 -108234968#8 -108234968#7 -108234968#6 -108234968#5 -108234968#3 -108234968#2 -108234968#1 -108234968#0 -296977678#16 -296977678#15 -296977678#14 -296977678#13 166456857#12 166456857#16 231239381#0 231239381#2 231239381#5 296977676 296977677#0 296977677#1 296977677#3 296977677#5 296977677#7 243803573#0 243803573#4"/>
    </vehicle>
    <vehicle id="car_f9B.0" type="passenger" depart="0.00">
        <route edges="248239142#4 248239142#8 248239138#0 248239138#1 248239138#2 248239138#5 248239147#0 248239147#4 248239147#8 -108234968#17 -108234968#16 -108234968#13 -108234968#12 -108234968#11 -108234968#10 -108234968#8 -108234968#7 -108234968#6 -108234968#5 -108234968#3 -108234968#2 -108234968#1 -108234968#0 -296977678#16 -296977678#15 -296977678#14 -296977678#13 166456857#12 166456857#16 231239381#0 231239381#2 231239381#5 296977676 296977677#0 296977677#1 296977677#3 296977677#5 296977677#7 243803573#0 243803573#4"/>
    </vehicle>
    <vehicle id="car_f9C.0" type="passenger" depart="0.00">
        <route edges="248239142#4 248239142#8 248239138#0 248239138#1 248239138#2 248239138#5 248239147#0 248239147#4 248239147#8 -108234968#17 -108234968#16 -108234968#13 -108234968#12 -108234968#11 -108234968#10 -108234968#8 -108234968#7 -108234968#6 -108234968#5 -108234968#3 -108234968#2 -108234968#1 -108234968#0 -296977678#16 -296977678#15 -296977678#14 -296977678#13 166456857#12 166456857#16 231239381#0 231239381#2 231239381#5 296977676 296977677#0 296977677#1 296977677#3 296977677#5 296977677#7 243803573#0 243803573#4"/>
    </vehicle>
    <vehicle id="car_f0A.1" type="passenger" depart="2.00">
        <route edges="240515828 240515827#0 240515827#1 405990662#0 405990662#2 405990662#3 246576608#0 246576608#1 246576608#2 246576608#3 246576608#4 212436387#0 212436387#2 212436387#4 239754104#0 239754104#2 239754104#4 239754104#7 239754104#9 249901822#0 249901822#2 249901822#4 249901822#7 249901822#10 249901822#14 405990666 266765446#0 266765446#1 266765446#4 266765446#5"/>
    </vehicle>
    <vehicle id="car_f0B.1" type="passenger" depart="2.00">
        <route edges="240515827#1 405990662#0 405990662#2 405990662#3 246576608#0 246576608#1 246576608#2 246576608#3 246576608#4 212436387#0 212436387#2 212436387#4 239754104#0 239754104#2 239754104#4 239754104#7 239754104#9 249901822#0 249901822#2 249901822#4 249901822#7 249901822#10 249901822#14 405990666 266765446#0 266765446#1 266765446#4 266765446#5"/>
    </vehicle>
    <vehicle id="car_f1A.1" type="passenger" depart="2.00">
        <route edges="-266765446#5 -266765446#4 -266765446#3 -266765446#0 -405990666 -249901822#14 -249901822#13 -249901822#9 -249901822#6 -249901822#3 -249901822#1 -239754104#10 -239754104#8 -239754104#6 -239754104#3 -239754104#1 -212436387#6 -212436387#3 -212436387#1 -246576608#6 -246576608#3 -246576608#2 -246576608#1 -246576608#0 -405990662#3 -405990662#2 -405990662#1 -240515827#2 -240515827#0 -240515828"/>
    </vehicle>
    <vehicle id="car_f1B.1" type="passenger" depart="2.00">
        <route edges="-266765446#3 -266765446#0 -405990666 -249901822#14 -249901822#13 -249901822#9 -249901822#6 -249901822#3 -249901822#1 -239754104#10 -239754104#8 -239754104#6 -239754104#3 -239754104#1 -212436387#6 -212436387#3 -212436387#1 -246576608#6 -246576608#3 -246576608#2 -246576608#1 -246576608#0 -405990662#3 -405990662#2 -405990662#1 -240515827#2 -240515827#0 -240515828"/>
    </vehicle>
    <vehicle id="car_f2A.1" type="passenger" depart="2.00">
        <route edges="267234730#0 267234731#0 267234731#4 267234731#8 267234731#11 267234731#12 267234731#13 267234731#14 267234731#18 267234731#25 267234731#28 347431834#0 347431834#3 347431834#5 347431834#7 347431834#9 347431834#11 347431834#13 347431834#15 347431834#16 51500288#1 51500288#2 267234700#0 267234700#2 267234700#5 267234700#6 267234700#7 267234700#8 267234700#11 267234700#14 313253064#0 313253064#1 313253064#2 313253064#6 107444331#4 248239122#3 248239122#7 248239118 248239119 248239116 267234701#0 267234701#3 267234701#6 267234701#7 267234701#8 267234701#9 267234701#12 51500287#0 51500287#2 297144854#9 297144854#10 297144854#11 297144854#13 297144854#15 297144854#17 297144854#19 297144854#21 297144854#23 297144854#26 347431832#0 347431832#3 347431832#10 347431832#14 347431832#15 347431832#16 347431832#17 347431832#20 347431832#24 347431832#28"/>
    </vehicle>
    <vehicle id="car_f2B.1" type="passenger" depart="2.00">
        <route edges="267234731#0 267234731#4 267234731#8 267234731#11 267234731#12 267234731#13 267234731#14 267234731#18 267234731#25 267234731#28 347431834#0 347431834#3 347431834#5 347431834#7 347431834#9 347431834#11 347431834#13 347431834#15 347431834#16 51500288#1 51500288#2 267234700#0 267234700#2 267234700#5 267234700#6 267234700#7 267234700#8 267234700#11 267234700#14 313253064#0 313253064#1 313253064#2 313253064#6 107444331#4 248239122#3 248239122#7 248239118 248239119 248239116 267234701#0 267234701#3 267234701#6 267234701#7 267234701#8 267234701#9 267234701#12 51500287#0 51500287#2 297144854#9 297144854#10 297144854#11 297144854#13 297144854#15 297144854#17 297144854#19 297144854#21 297144854#23 297144854#26 347431832#0 347431832#3 347431832#10 347431832#14 347431832#15 347431832#16 347431832#17 347431832#20 347431832#24 347431832#28"/>
    </vehicle>
    <vehicle id="car_f3A.1" type="passenger" depart="2.00">
        <route edges="248239122#0 248239122#3 248239122#7 248239118 248239119 248239116 267234701#0 267234701#3 267234701#6 267234701#7 267234701#8 267234701#9 267234701#12 51500287#0 51500287#2 297144854#9 297144854#10 297144854#11 297144854#13 297144854#15 297144854#17 297144854#19 297144854#21 297144854#23 297144854#26 347431832#0 347431832#3 347431832#10 347431832#14 347431832#15 347431832#16 347431832#17 347431832#20 347431832#24 347431832#28 293501359 267234730#0 267234731#0 267234731#4 267234731#8 267234731#11 267234731#12 267234731#13 267234731#14 267234731#18 267234731#25 267234731#28 347431834#0 347431834#3 347431834#5 347431834#7 347431834#9 347431834#11 347431834#13 347431834#15 347431834#16 51500288#1 51500288#2 267234700#0 267234700#2 267234700#5 267234700#6 267234700#7 267234700#8 267234700#11 267234700#14 313253064#0 313253064#1 313253064#2 313253064#6 313253064#10"/>
    </vehicle>
    <vehicle id="car_f3B.1" type="passenger" depart="2.00">
        <route edges="248239122#3 248239122#7 248239118 248239119 248239116 267234701#0 267234701#3 267234701#6 267234701#7 267234701#8 267234701#9 267234701#12 51500287#0 51500287#2 297144854#9 297144854#10 297144854#11 297144854#13 297144854#15 297144854#17 297144854#19 297144854#21 297144854#23 297144854#26 347431832#0 347431832#3 347431832#10 347431832#14 347431832#15 347431832#16 347431832#17 347431832#20 347431832#24 347431832#28 293501359 267234730#0 267234731#0 267234731#4 267234731#8 267234731#11 267234731#12 267234731#13 267234731#14 267234731#18 267234731#25 267234731#28 347431834#0 347431834#3 347431834#5 347431834#7 347431834#9 347431834#11 347431834#13 347431834#15 347431834#16 51500288#1 51500288#2 267234700#0 267234700#2 267234700#5 267234700#6 267234700#7 267234700#8 267234700#11 267234700#14 313253064#0 313253064#1 313253064#2 313253064#6 313253064#10"/>
    </vehicle>
    <vehicle id="car_f4A.1" type="passenger" depart="2.00">
        <route edges="249154070#0 249154070#4 249154070#5 405985983#0 405985983#3 405985983#7 1294881043 918227024#0 918227023#0 280474978#0 280474978#1 280474978#2 184601297#0 184601297#4 184601297#8 184601297#11 184601297#13 184601297#15 184601297#16 184601297#17 184601297#19 267234707#0 267234707#1 267234707#2 267234707#3 267234707#4 267234707#7 267234707#9"/>
    </vehicle>
    <vehicle id="car_f4B.1" type="passenger" depart="2.00">
        <route edges="249154070#4 249154070#5 405985983#0 405985983#3 405985983#7 1294881043 918227024#0 918227023#0 280474978#0 280474978#1 280474978#2 184601297#0 184601297#4 184601297#8 184601297#11 184601297#13 184601297#15 184601297#16 184601297#17 184601297#19 267234707#0 267234707#1 267234707#2 267234707#3 267234707#4 267234707#7 267234707#9"/>
    </vehicle>
    <vehicle id="car_f5A.1" type="passenger" depart="2.00">
        <route edges="-40432495#2 249154072#0 249154072#4 249154072#5 249154072#6 249154072#8 267234706#1 166456857#0 166456857#1 166456857#2 166456857#3 166456857#5 166456857#7 166456857#9 166456857#12 166456857#16 239754092#0 918227027#0 244507823#0 1294881031#0 249154071#1 249154071#5 23881708#0 23881708#2 23881708#3"/>
    </vehicle>
    <vehicle id="car_f5B.1" type="passenger" depart="2.00">
        <route edges="249154072#0 249154072#4 249154072#5 249154072#6 249154072#8 267234706#1 166456857#0 166456857#1 166456857#2 166456857#3 166456857#5 166456857#7 166456857#9 166456857#12 166456857#16 239754092#0 918227027#0 244507823#0 1294881031#0 249154071#1 249154071#5 23881708#0 23881708#2 23881708#3"/>
    </vehicle>
    <vehicle id="car_f6A.1" type="passenger" depart="2.00">
        <route edges="81160490 81160514#0 81160514#1 251009387#0 251009387#1 251009387#3 58527533#0 58527533#1 58527533#5 58527533#9 58527533#10 58527533#11 58527533#12 58527533#14 58527533#16 58527533#19 58527533#20 108126638#0 108126638#2 108126638#3 108126638#6 108126638#10 25669188#4 249002662#2 249002662#6 249002662#10 249002662#13 249002662#14 26978282#0 26978282#2 26978282#3 26978282#5 26978282#7 26978282#10 26978282#11 26978282#12 26978282#13 26978282#17 293501350 58527548#0 58527548#3 58527548#4 246576617#0 246576617#1 81160492#0"/>
    </vehicle>
    <vehicle id="car_f6B.1" type="passenger" depart="2.00">
        <route edges="81160514#0 81160514#1 251009387#0 251009387#1 251009387#3 58527533#0 58527533#1 58527533#5 58527533#9 58527533#10 58527533#11 58527533#12 58527533#14 58527533#16 58527533#19 58527533#20 108126638#0 108126638#2 108126638#3 108126638#6 108126638#10 25669188#4 249002662#2 249002662#6 249002662#10 249002662#13 249002662#14 26978282#0 26978282#2 26978282#3 26978282#5 26978282#7 26978282#10 26978282#11 26978282#12 26978282#13 26978282#17 293501350 58527548#0 58527548#3 58527548#4 246576617#0 246576617#1 81160492#0"/>
    </vehicle>
    <vehicle id="car_f7A.1" type="passenger" depart="2.00">
        <route edges="249002662#0 249002662#2 249002662#6 249002662#10 249002662#13 249002662#14 26978282#0 26978282#2 26978282#3 26978282#5 26978282#7 26978282#10 26978282#11 26978282#12 26978282#13 26978282#17 293501350 58527548#0 58527548#3 58527548#4 246576617#0 81160514#1 251009387#0 251009387#1 251009387#3 58527533#0 58527533#1 58527533#5 58527533#9 58527533#10 58527533#11 58527533#12 58527533#14 58527533#16 58527533#19 58527533#20 108126638#0 108126638#2 108126638#3 108126638#6 108126638#10 108126638#14"/>
    </vehicle>
    <vehicle id="car_f7B.1" type="passenger" depart="2.00">
        <route edges="249002662#2 249002662#6 249002662#10 249002662#13 249002662#14 26978282#0 26978282#2 26978282#3 26978282#5 26978282#7 26978282#10 26978282#11 26978282#12 26978282#13 26978282#17 293501350 58527548#0 58527548#3 58527548#4 246576617#0 81160514#1 251009387#0 251009387#1 251009387#3 58527533#0 58527533#1 58527533#5 58527533#9 58527533#10 58527533#11 58527533#12 58527533#14 58527533#16 58527533#19 58527533#20 108126638#0 108126638#2 108126638#3 108126638#6 108126638#10 108126638#14"/>
    </vehicle>
    <vehicle id="car_f8A.1" type="passenger" depart="2.00">
        <route edges="249901814#0 249901814#4 777323619#0 297142918#0 297142918#2 297142918#4 297142918#6 347431830 347431833#0 347431833#1 347431833#2 347431833#4 184601297#0 184601297#4 296977678#12 296977678#14 296977678#15 296977678#16 108234968#0 108234968#1 108234968#2 108234968#3 108234968#4 108234968#6 108234968#7 108234968#8 108234968#10 108234968#11 108234968#12 108234968#13 108234968#14 108234968#17 108234968#18 267412231#6 267412231#10 267412231#14 267412229#0 267412229#3 267412229#6 267412229#7 248239144#0 248239144#1 248239144#5"/>
    </vehicle>
    <vehicle id="car_f8B.1" type="passenger" depart="2.00">