<?xml version="1.0" encoding="UTF-8"?>

<!-- generated on 2025-03-21 20:53:20.055721 by randomTrips.py v1_22_0+0002-63e50f52594
<configuration>
    <net-file value="formosa.net.xml"/>
    <route-file value="randomCar.rou.xml"/>
    <vehicle-class value="passenger"/>
    <fringe-factor value="10"/>
    <random value="True"/>
    <end value="300.0"/>
    <period value="15.0"/>
</configuration>
-->

<!-- generated on 2025-03-21 20:53:19 by Eclipse SUMO duarouter Version 1.22.0
<duarouterConfiguration xmlns:xsi="http://www.w3.org/2001/XMLSchema-instance" xsi:noNamespaceSchemaLocation="http://sumo.dlr.de/xsd/duarouterConfiguration.xsd">

    <input>
        <net-file value="formosa.net.xml"/>
        <route-files value="trips.trips.xml"/>
    </input>

    <output>
        <output-file value="randomCar.rou.xml"/>
        <alternatives-output value="NUL"/>
    </output>

    <time>
        <begin value="0"/>
        <end value="300.0"/>
    </time>

    <report>
        <no-warnings value="true"/>
        <ignore-errors value="true"/>
        <no-step-log value="true"/>
    </report>

</duarouterConfiguration>
-->

<routes xmlns:xsi="http://www.w3.org/2001/XMLSchema-instance" xsi:noNamespaceSchemaLocation="http://sumo.dlr.de/xsd/routes_file.xsd">
    <vehicle id="car0" type="passenger" depart="0.00">
        <route edges="39217272 -39217273#2 -39217273#1 -39217273#0 -266765446#3 -266765446#0 -405990666 -249901822#14 -249901822#13 -249901822#9 -249901822#6 -249901822#3 -249901822#1 249901812#0 249901812#2 249901812#3 249901812#4 45915811#11 45915811#13 45915811#16 45915811#20 279282972#0 279282972#2 279282973#0 -296977683#2 -34049276#0"/>
    </vehicle>
    <vehicle id="car1" type="passenger" depart="15.00">
        <route edges="26978282#12 26978282#13 28592582#0 28592582#1 46144121#6 46144121#7 46144115#0"/>
    </vehicle>
    <vehicle id="car2" type="passenger" depart="30.00">
        <route edges="311096398#1 268609129#3 268609129#4 249154072#4 249154072#5 249154072#6 249154072#8 267234706#1 166456857#0 166456857#1 166456857#2 166456857#3 166456857#5 166456857#7 166456857#9 166456857#12 166456857#16 239754092#0 1294881038#0 58527544#1 -28592780#6 26978282#5"/>
    </vehicle>
    <vehicle id="car3" type="passenger" depart="45.00">
        <route edges="297142517#14 297142517#15 297142517#16 297142517#17 297142517#18 771819848#0 771819848#1 771819848#2 771819848#3 771819848#5 249154072#5 249154072#6 249154072#8 267234706#1 166456857#0 166456857#1 166456857#2 166456857#3 166456857#5 166456857#7 166456857#9 166456857#12 166456857#16 239754092#0 918227027#0 244507823#0 1294881031#0 249154071#1 249154071#5 23632743#0 23632743#2 23632743#3 -296977682#1 -267234705#5 -267234705#3 -267234705#0 -293501359 -E3"/>
    </vehicle>
    <vehicle id="car4" type="passenger" depart="60.00">
        <route edges="-38363415#13 25669188#12 25669188#18 25669188#21 782410962#0 782410962#3 782410962#6 782410962#9 782410962#10 782410962#11 782410962#12 782410962#13 782410962#14 782410962#15 -28425175#15 -28425175#13 -28425175#10 -28425175#5 -28425175#2 -249901812#20 -249901812#18 -249901812#16 -249901812#15 -249901812#14 -249901812#13 -249901812#11 -249901812#10 -249901812#6 -249901812#3 -249901812#2 -249901812#1 249901822#0 249901822#2 249901822#4"/>
    </vehicle>
    <vehicle id="car5" type="passenger" depart="75.00">
        <route edges="51500284#28 51500284#30 51500284#31 51500284#32 61978938#6 267234701#12 51500287#0 51500287#2 297144854#9 297144854#10 297144854#11 297144854#13 297144854#15 297144854#17 297144854#19 297144854#21 -28578614#0 28553149#0 28553149#2 28553149#4 28553149#5"/>
    </vehicle>
    <vehicle id="car6" type="passenger" depart="90.00">
        <route edges="-302143579#2 302143579#0 248239134#4 248239134#8 248239134#12 248239134#16 248239134#19"/>
    </vehicle>
    <vehicle id="car7" type="passenger" depart="105.00">
        <route edges="-249901812#20 249901812#19 28425175#1 28425175#3 28425175#6 28425175#11 28425175#14 28425175#16 28425175#18 28425175#19 248239084 -248239086 248239132#0 248239132#2 248239132#4 248239132#6 248239132#7 248239126#0"/>
    </vehicle>
    <vehicle id="car8" type="passenger" depart="120.00">
        <route edges="28566501#3 28590497#9 28590497#12 108126638#6 -28426234#16 -28426234#15 -28426234#14 -28426234#9 -28426234#4 347690241#1 347690241#6 347690241#10 108234968#4 108234968#6"/>
    </vehicle>
    <vehicle id="car9" type="passenger" depart="135.00">
        <route edges="-28566501#2 -28426234#20 -28426234#17 -28426234#16 -28426234#15 -28426234#14 -28426234#9 -28426234#4 347690241#1 347690241#6 347690241#10 347690241#12 347690241#16 347690241#19 347690241#20 347690241#21 -28425175#10 -28425175#5 -28425175#2 -249901812#20 -249901812#18 -249901812#16 -249901812#15 -249901812#14 -249901812#13 -249901812#11 -249901812#10 -249901812#6 -249901812#3 -249901812#2 -249901812#1 249901822#0 249901822#2 249901822#4 -83801639#2 -83801639#0"/>
    </vehicle>
    <vehicle id="car10" type="passenger" depart="150.00">
        <route edges="-310745197 -38363415#6 -28426234#9 -28426234#4 347690241#1 347690241#6 347690241#10 347690241#12 347690241#16 347690241#19 347690241#20 347690241#21 347690241#24 347690241#27 347690241#29 347690241#31 214771330#0 214771330#1 214771330#2 214771330#3 214771330#6 214771330#8 214771330#9 214771330#10 214771330#13 268609129#0 268609129#2 268609129#3 268609129#4 -405985980#6 -405985980#4 -405985980#3 -405985980#0 311096404#0 25670354#0 932092101#0 932092101#1 932092101#3 25670366#0 25670366#1 25670366#3 25670366#5 25670366#8 25670366#10 297142516#0 297142516#2 266765446#1 39217273#0 39217273#1 39217273#2 -39217272"/>
    </vehicle>
    <vehicle id="car11" type="passenger" depart="165.00">
        <route edges="310745669 -347690245#2 347690241#16 347690241#19 347690241#20 347690241#21 28425175#11 28425175#14 28425175#16 28425175#18 28425175#19 248239084 -248239086 -248239090#4 -248239090#0"/>
    </vehicle>
    <vehicle id="car12" type="passenger" depart="180.00">
        <route edges="293501354#15 -214529113 214529118#1 297142918#2 297142918#4 297142918#6 347431830 347431833#0 347431833#1 28553150#33 45923027#0 45923027#2 45923027#4 45923027#5 45923027#6 296977678#2 296977678#4 296977678#9 296977678#12 296977678#14 296977678#15 296977678#16 108234968#0 108234968#1 108234968#2 108234968#3 108234968#4 108234968#6 108234968#7 108234968#8 -214039155#1 -214039155#0"/>
    </vehicle>
    <vehicle id="car13" type="passenger" depart="195.00">
        <route edges="239754100#2 239754100#4 239754100#5 239754100#7 239754100#9 239754100#10 239754100#12 293501358#0 293501358#3 293501358#4 293501358#5 293501358#6 293501358#7 293501358#8 293501358#9 293501358#10 293501358#11 293501358#13 296977678#0 296977678#1 296977678#2 -108126635#2 -108126635#1 -108126656#2"/>
    </vehicle>
    <vehicle id="car14" type="passenger" depart="210.00">
        <route edges="279282973#6 28423161#5 28423161#8 28423161#11 28423161#14 28423161#15 405990662#3 246576608#0 246576608#1 246576608#2 246576608#3 246576608#4 212436387#0 212436387#2 212436387#4 239754104#0 239754104#2 239754104#4 239754104#7 239754104#9 249901822#0 249901822#2 249901822#4 -83801639#2 -83801639#0"/>
    </vehicle>
    <vehicle id="car15" type="passenger" depart="225.00">
        <route edges="212436387#2 752588682#2 752588682#3 752588682#4 752588682#5 752588682#6 752588682#7 752588682#9 752588682#10 279282972#2 297142918#0 297142918#2 297142918#4 297142918#6 347431830 347431833#0 347431833#1 347431833#2 347431833#4 239754092#0 918227027#0 26978282#0 58527544#0"/>
    </vehicle>
    <vehicle id="car16" type="passenger" depart="240.00">
        <route edges="-214773996#0 214773996#0 214773996#1 214773996#2 208708163#2 297144854#0 25670357#3 405985980#0 405985980#1 405985980#4 405985980#5 249154072#4 249154072#5 249154072#6 249154072#8 267234706#1 166456857#0 166456857#1 166456857#2 166456857#3 166456857#5 166456857#7 166456857#9 166456857#12 166456857#16 239754092#0 1294881038#0 58527544#1 58527544#3 58527544#5 28553150#18"/>
    </vehicle>
    <vehicle id="car17" type="passenger" depart="255.00">
        <route edges="-108234960 -816706578#35 -816706578#34 -816706578#31 -816706578#29 -816706578#28 -214524847 28423654#6"/>
    </vehicle>
    <vehicle id="car18" type="passenger" depart="270.00">
        <route edges="28426234#16 -28426234#16 249002662#6 249002662#10 249002662#13 249002662#14 918227023#0 280474978#0 280474978#1 280474978#2 184601297#0 184601297#4 -296977678#10 -296977678#8 -296977678#3 -296977678#1 -296977678#0 -293501358#13 -293501358#12 -293501358#10 -293501358#9 -293501358#8 -293501358#7 -293501358#6 -293501358#5 293501358#5"/>
    </vehicle>
    <vehicle id="car19" type="passenger" depart="285.00">
        <route edges="89265816#10 -266765446#4 -266765446#3 -266765446#0 -405990666 -249901822#14 -249901822#13 -249901822#9 -249901822#6 -249901822#3 -249901822#1 -239754104#10 -239754104#8 -239754104#6 -239754104#3 -239754104#1 -212436387#6 -212436387#3 -212436387#1 -246576608#6 -246576608#3 -246576608#2 -246576608#1 -246576608#0 -405990662#3 -405990662#2 -405990662#1 -240515827#2 -240515827#0 -240515828"/>
    </vehicle>
</routes>
